BRD4, Ligand 1
     RDKit          3D

 29 31  0  0  0  0  0  0  0  0999 V2000
    2.7960   -3.1170   11.5320 N   0  0  0  0  0  0  0  0  0  0  0  0
    2.5010   -4.1570    9.3850 N   0  0  0  0  0  0  0  0  0  1  0  0
    3.1660   -3.4780   12.7880 N   0  0  0  0  0  0  0  0  0  2  0  0
    3.1910   -5.2940   11.4140 N   0  0  0  0  0  0  0  0  0  3  0  0
    2.4400   -1.8530   11.0440 C   0  0  0  0  0  0  0  0  0  4  0  0
    2.1160   -1.7280    9.7460 C   0  0  0  0  0  0  0  0  0  5  0  0
    2.8220   -4.2440   10.7070 C   0  0  0  0  0  0  0  0  0  6  0  0
    2.1730   -2.9820    8.9350 C   0  0  0  0  0  0  0  0  0  7  0  0
    1.8140   -2.8670    7.4750 C   0  0  0  0  0  0  0  0  0  8  0  0
    3.3840   -4.7830   12.6560 C   0  0  0  0  0  0  0  0  0  9  0  0
    2.4000   -0.6670   11.9180 C   0  0  0  0  0  0  0  0  0 10  0  0
    3.0530    0.5050   11.5340 C   0  0  0  0  0  0  0  0  0 11  0  0
    3.0160    1.6280   12.3610 C   0  0  0  0  0  0  0  0  0 12  0  0
    2.3260    1.5790   13.5730 C   0  0  0  0  0  0  0  0  0 13  0  0
    1.6740    0.4080   13.9570 C   0  0  0  0  0  0  0  0  0 14  0  0
    1.7100   -0.7140   13.1300 C   0  0  0  0  0  0  0  0  0 15  0  0
    1.8440   -0.8220    9.3340 H   0  0  0  0  0  0  0  0  0 16  0  0
    1.8940   -3.8280    7.0110 H   0  0  0  0  0  0  0  0  0 17  0  0
    2.4830   -2.1830    6.9960 H   0  0  0  0  0  0  0  0  0 18  0  0
    0.8100   -2.5080    7.3820 H   0  0  0  0  0  0  0  0  0 19  0  0
    3.5640    0.5410   10.6380 H   0  0  0  0  0  0  0  0  0 21  0  0
    3.4990    2.4950   12.0770 H   0  0  0  0  0  0  0  0  0 22  0  0
    2.2980    2.4090   14.1850 H   0  0  0  0  0  0  0  0  0 23  0  0
    1.1650    0.3720   14.8540 H   0  0  0  0  0  0  0  0  0 24  0  0
    1.2260   -1.5800   13.4140 H   0  0  0  0  0  0  0  0  0 25  0  0
    4.6999   -5.7482   13.2952 H   0  0  0  0  0  0  0  0  0  0  0  0
    3.6899   -5.3867   13.4712 C   0  0  0  0  0  0  0  0  0  0  0  0
    3.0141   -6.2323   13.5694 H   0  0  0  0  0  0  0  0  0  0  0  0
    3.6697   -4.7987   14.3852 H   0  0  0  0  0  0  0  0  0  0  0  0
  1  3  1  0
  1  5  1  0
  1  7  1  0
  2  7  1  0
  2  8  2  0
  3 10  2  0
  4  7  2  0
  4 10  1  0
  5  6  2  0
  5 11  1  0
  6  8  1  0
  6 17  1  0
  8  9  1  0
  9 18  1  0
  9 19  1  0
  9 20  1  0
 11 12  2  0
 11 16  1  0
 12 13  1  0
 12 21  1  0
 13 14  2  0
 13 22  1  0
 14 15  1  0
 14 23  1  0
 15 16  2  0
 15 24  1  0
 16 25  1  0
 26 27  1  0
 27 28  1  0
 27 29  1  0
 10 27  1  0
M  END
