
     RDKit          3D

  5  4  0  0  0  0  0  0  0  0999 V2000
    4.6999   -5.7482   13.2952 H   0  0  0  0  0  0  0  0  0  0  0  0
    3.6899   -5.3867   13.4712 C   0  0  0  0  0  0  0  0  0  0  0  0
    3.0141   -6.2323   13.5694 H   0  0  0  0  0  0  0  0  0  0  0  0
    3.6697   -4.7987   14.3852 H   0  0  0  0  0  0  0  0  0  0  0  0
    3.3761   -4.7673   12.6348 R   0  0  0  0  0  0  0  0  0  0  0  0
  1  2  1  0
  2  3  1  0
  2  4  1  0
  2  5  1  0
V    5 *
M  END
