
     RDKit          3D

 25 25  0  0  0  0  0  0  0  0999 V2000
    3.9275    0.4096    0.6195 C   0  0  0  0  0  0  0  0  0  0  0  0
    3.3135   -0.2741   -0.5940 C   0  0  0  0  0  0  0  0  0  1  0  0
    1.8118   -0.0194   -0.7072 C   0  0  0  0  0  0  0  0  0  2  0  0
    1.1597   -0.5987    0.4221 O   0  0  0  0  0  0  0  0  0  3  0  0
   -0.1989   -0.4677    0.4982 C   0  0  0  0  0  0  0  0  0  4  0  0
   -0.7736   -1.0407    1.6333 C   0  0  0  0  0  0  0  0  0  5  0  0
   -2.1524   -0.9806    1.8373 C   0  0  0  0  0  0  0  0  0  6  0  0
   -2.9686   -0.3435    0.9020 C   0  0  0  0  0  0  0  0  0  7  0  0
   -4.6682   -0.2999    1.2077 Cl  0  0  0  0  0  0  0  0  0  8  0  0
   -2.4127    0.2392   -0.2470 C   0  0  0  0  0  0  0  0  0  9  0  0
   -3.2643    0.9325   -1.2738 C   0  0  0  0  0  0  0  0  0 10  0  0
   -1.0189    0.1687   -0.4371 C   0  0  0  0  0  0  0  0  0 11  0  0
    5.0062    0.2264    0.6497 H   0  0  0  0  0  0  0  0  0 12  0  0
    3.4958    0.0312    1.5514 H   0  0  0  0  0  0  0  0  0 13  0  0
    3.7682    1.4919    0.5810 H   0  0  0  0  0  0  0  0  0 14  0  0
    3.4981   -1.3519   -0.5158 H   0  0  0  0  0  0  0  0  0 15  0  0
    3.8117    0.0854   -1.5011 H   0  0  0  0  0  0  0  0  0 16  0  0
    1.6257    1.0608   -0.7432 H   0  0  0  0  0  0  0  0  0 17  0  0
    1.4469   -0.4891   -1.6284 H   0  0  0  0  0  0  0  0  0 18  0  0
   -0.1415   -1.5382    2.3651 H   0  0  0  0  0  0  0  0  0 19  0  0
   -2.5814   -1.4328    2.7275 H   0  0  0  0  0  0  0  0  0 20  0  0
   -3.7912    1.7799   -0.8234 H   0  0  0  0  0  0  0  0  0 21  0  0
   -3.9898    0.2340   -1.7028 H   0  0  0  0  0  0  0  0  0 22  0  0
   -2.6599    1.3242   -2.0990 H   0  0  0  0  0  0  0  0  0 23  0  0
   -0.5963    0.6204   -1.3293 H   0  0  0  0  0  0  0  0  0 24  0  0
  1  2  1  0
  2  3  1  0
  3  4  1  0
  4  5  1  0
  5  6  2  0
  6  7  1  0
  7  8  2  0
  8  9  1  0
  8 10  1  0
 10 11  1  0
 10 12  2  0
 12  5  1  0
  1 13  1  0
  1 14  1  0
  1 15  1  0
  2 16  1  0
  2 17  1  0
  3 18  1  0
  3 19  1  0
  6 20  1  0
  7 21  1  0
 11 22  1  0
 11 23  1  0
 11 24  1  0
 12 25  1  0
M  END
$$$$
