Diopside
     RDKit          3D

  6  3  0  0  0  0  0  0  0  0999 V2000
   -0.3588    8.0977    1.2626 Mg  0  0  0  0  0 15  0  0  0  0  0  0
   -0.3588    2.6884    1.2626 Ca  0  0  0  0  0  1  0  0  0  0  0  0
    2.4582    0.8310    1.1583 Si  0  0  0  0  0  3  0  0  0  0  0  0
    0.9217    0.7749    0.7164 O   0  0  0  0  0  0  0  0  0  0  0  0
    3.0593    2.2310    1.6048 O   0  0  0  0  0  0  0  0  0  0  0  0
    1.9872    0.1555    5.0272 O   0  0  0  0  0 15  0  0  0  0  0  0
  3  5  2  0
  4  3  1  0
  4  2  1  0
M  RAD  2   2   2   3   2
M  END
